<?xml version="1.0" encoding="UTF-8"?>

<net version="1.16" junctionCornerDetail="5" limitTurnSpeed="5.50" xmlns:xsi="http://www.w3.org/2001/XMLSchema-instance" xsi:noNamespaceSchemaLocation="http://sumo.dlr.de/xsd/net_file.xsd">

    <location netOffset="0.00,0.00" convBoundary="-100.00,-150.00,200.10,150.00" origBoundary="-10000000000.00,-10000000000.00,10000000000.00,10000000000.00" projParameter="!"/>

    <edge id=":J6_0" function="internal">
        <lane id=":J6_0_0" index="0" speed="7.33" length="11.73" shape="38.80,16.81 38.45,12.95 37.40,10.20 35.65,8.55 33.20,8.00"/>
    </edge>
    <edge id=":J6_1" function="internal">
        <lane id=":J6_1_0" index="0" speed="13.89" length="33.80" shape="38.80,16.81 39.30,6.54 40.40,-0.70 41.50,-7.59 42.00,-16.80"/>
        <lane id=":J6_1_1" index="1" speed="13.89" length="33.80" shape="42.00,16.81 42.50,6.54 43.60,-0.70 44.70,-7.59 45.20,-16.80"/>
        <lane id=":J6_1_2" index="2" speed="13.89" length="33.80" shape="45.20,16.81 45.70,6.54 46.80,-0.70 47.90,-7.59 48.40,-16.80"/>
    </edge>
    <edge id=":J6_4" function="internal">
        <lane id=":J6_4_0" index="0" speed="11.36" length="7.96" shape="48.40,16.81 49.53,8.93"/>
    </edge>
    <edge id=":J6_20" function="internal">
        <lane id=":J6_20_0" index="0" speed="11.36" length="21.71" shape="49.53,8.93 49.55,8.75 53.00,3.00 58.75,-0.44 66.79,-1.59"/>
    </edge>
    <edge id=":J6_5" function="internal">
        <lane id=":J6_5_0" index="0" speed="7.32" length="11.71" shape="66.79,11.21 62.94,11.56 60.20,12.61 58.55,14.36 58.00,16.81"/>
    </edge>
    <edge id=":J6_6" function="internal">
        <lane id=":J6_6_0" index="0" speed="13.89" length="33.79" shape="66.79,11.21 56.53,10.70 49.29,9.60 42.40,8.50 33.20,8.00"/>
        <lane id=":J6_6_1" index="1" speed="13.89" length="33.79" shape="66.79,8.01 56.53,7.50 49.29,6.40 42.40,5.30 33.20,4.80"/>
        <lane id=":J6_6_2" index="2" speed="13.89" length="33.79" shape="66.79,4.81 56.53,4.30 49.29,3.20 42.40,2.10 33.20,1.60"/>
    </edge>
    <edge id=":J6_9" function="internal">
        <lane id=":J6_9_0" index="0" speed="11.36" length="29.67" shape="66.79,1.61 58.75,0.46 53.00,-3.00 49.55,-8.75 48.40,-16.80"/>
    </edge>
    <edge id=":J6_10" function="internal">
        <lane id=":J6_10_0" index="0" speed="7.33" length="11.73" shape="61.20,-16.80 61.55,-12.95 62.60,-10.19 64.35,-8.54 66.80,-7.99"/>
    </edge>
    <edge id=":J6_11" function="internal">
        <lane id=":J6_11_0" index="0" speed="13.89" length="33.80" shape="61.20,-16.80 60.70,-6.54 59.60,0.71 58.50,7.60 58.00,16.81"/>
        <lane id=":J6_11_1" index="1" speed="13.89" length="33.80" shape="58.00,-16.80 57.50,-6.54 56.40,0.71 55.30,7.60 54.80,16.81"/>
        <lane id=":J6_11_2" index="2" speed="13.89" length="33.80" shape="54.80,-16.80 54.30,-6.54 53.20,0.71 52.10,7.60 51.60,16.81"/>
    </edge>
    <edge id=":J6_14" function="internal">
        <lane id=":J6_14_0" index="0" speed="11.36" length="7.96" shape="51.60,-16.80 50.47,-8.92"/>
    </edge>
    <edge id=":J6_21" function="internal">
        <lane id=":J6_21_0" index="0" speed="11.36" length="21.72" shape="50.47,-8.92 50.45,-8.75 47.00,-3.00 41.25,0.45 33.20,1.60"/>
    </edge>
    <edge id=":J6_15" function="internal">
        <lane id=":J6_15_0" index="0" speed="7.33" length="11.73" shape="33.20,-11.20 37.05,-11.55 39.80,-12.60 41.45,-14.35 42.00,-16.80"/>
    </edge>
    <edge id=":J6_16" function="internal">
        <lane id=":J6_16_0" index="0" speed="13.89" length="33.79" shape="33.20,-11.20 43.46,-10.70 50.70,-9.60 57.59,-8.49 66.80,-7.99"/>
        <lane id=":J6_16_1" index="1" speed="13.89" length="33.79" shape="33.20,-8.00 43.46,-7.50 50.70,-6.40 57.59,-5.29 66.80,-4.79"/>
        <lane id=":J6_16_2" index="2" speed="13.89" length="33.79" shape="33.20,-4.80 43.46,-4.30 50.70,-3.20 57.59,-2.09 66.79,-1.59"/>
    </edge>
    <edge id=":J6_19" function="internal">
        <lane id=":J6_19_0" index="0" speed="11.36" length="29.68" shape="33.20,-1.60 41.25,-0.45 47.00,3.00 50.45,8.75 51.60,16.81"/>
    </edge>

    <edge id="-E" from="J6" to="J7" priority="-1" shape="50.00,0.00 200.10,0.10">
        <lane id="-E_0" index="0" speed="13.89" length="133.21" shape="66.80,-7.99 200.01,-7.90"/>
        <lane id="-E_1" index="1" speed="13.89" length="133.21" shape="66.80,-4.79 200.00,-4.70"/>
        <lane id="-E_2" index="2" speed="13.89" length="133.21" shape="66.79,-1.59 200.00,-1.50"/>
    </edge>
    <edge id="-N" from="J6" to="J8" priority="-1">
        <lane id="-N_0" index="0" speed="13.89" length="133.19" shape="58.00,16.81 58.00,150.00"/>
        <lane id="-N_1" index="1" speed="13.89" length="133.19" shape="54.80,16.81 54.80,150.00"/>
        <lane id="-N_2" index="2" speed="13.89" length="133.19" shape="51.60,16.81 51.60,150.00"/>
    </edge>
    <edge id="-S" from="J6" to="J9" priority="-1">
        <lane id="-S_0" index="0" speed="13.89" length="133.20" shape="42.00,-16.80 42.00,-150.00"/>
        <lane id="-S_1" index="1" speed="13.89" length="133.20" shape="45.20,-16.80 45.20,-150.00"/>
        <lane id="-S_2" index="2" speed="13.89" length="133.20" shape="48.40,-16.80 48.40,-150.00"/>
    </edge>
    <edge id="-W" from="J6" to="J5" priority="-1">
        <lane id="-W_0" index="0" speed="13.89" length="133.20" shape="33.20,8.00 -100.00,8.00"/>
        <lane id="-W_1" index="1" speed="13.89" length="133.20" shape="33.20,4.80 -100.00,4.80"/>
        <lane id="-W_2" index="2" speed="13.89" length="133.20" shape="33.20,1.60 -100.00,1.60"/>
    </edge>
    <edge id="E" from="J7" to="J6" priority="-1" shape="200.10,0.10 50.00,0.00">
        <lane id="E_0" index="0" speed="13.89" length="133.21" shape="199.99,11.30 66.79,11.21"/>
        <lane id="E_1" index="1" speed="13.89" length="133.21" shape="199.99,8.10 66.79,8.01"/>
        <lane id="E_2" index="2" speed="13.89" length="133.21" shape="200.00,4.90 66.79,4.81"/>
        <lane id="E_3" index="3" speed="13.89" length="133.21" shape="200.00,1.70 66.79,1.61"/>
    </edge>
    <edge id="N" from="J8" to="J6" priority="-1">
        <lane id="N_0" index="0" speed="13.89" length="133.19" shape="38.80,150.00 38.80,16.81"/>
        <lane id="N_1" index="1" speed="13.89" length="133.19" shape="42.00,150.00 42.00,16.81"/>
        <lane id="N_2" index="2" speed="13.89" length="133.19" shape="45.20,150.00 45.20,16.81"/>
        <lane id="N_3" index="3" speed="13.89" length="133.19" shape="48.40,150.00 48.40,16.81"/>
    </edge>
    <edge id="S" from="J9" to="J6" priority="-1">
        <lane id="S_0" index="0" speed="13.89" length="133.20" shape="61.20,-150.00 61.20,-16.80"/>
        <lane id="S_1" index="1" speed="13.89" length="133.20" shape="58.00,-150.00 58.00,-16.80"/>
        <lane id="S_2" index="2" speed="13.89" length="133.20" shape="54.80,-150.00 54.80,-16.80"/>
        <lane id="S_3" index="3" speed="13.89" length="133.20" shape="51.60,-150.00 51.60,-16.80"/>
    </edge>
    <edge id="W" from="J5" to="J6" priority="-1">
        <lane id="W_0" index="0" speed="13.89" length="133.20" shape="-100.00,-11.20 33.20,-11.20"/>
        <lane id="W_1" index="1" speed="13.89" length="133.20" shape="-100.00,-8.00 33.20,-8.00"/>
        <lane id="W_2" index="2" speed="13.89" length="133.20" shape="-100.00,-4.80 33.20,-4.80"/>
        <lane id="W_3" index="3" speed="13.89" length="133.20" shape="-100.00,-1.60 33.20,-1.60"/>
    </edge>

    <junction id="J5" type="dead_end" x="-100.00" y="0.00" incLanes="-W_0 -W_1 -W_2" intLanes="" shape="-100.00,0.00 -100.00,9.60 -100.00,0.00"/>
    <junction id="J6" type="priority" x="50.00" y="0.00" incLanes="N_0 N_1 N_2 N_3 E_0 E_1 E_2 E_3 S_0 S_1 S_2 S_3 W_0 W_1 W_2 W_3" intLanes=":J6_0_0 :J6_1_0 :J6_1_1 :J6_1_2 :J6_20_0 :J6_5_0 :J6_6_0 :J6_6_1 :J6_6_2 :J6_9_0 :J6_10_0 :J6_11_0 :J6_11_1 :J6_11_2 :J6_21_0 :J6_15_0 :J6_16_0 :J6_16_1 :J6_16_2 :J6_19_0" shape="37.20,16.81 59.60,16.81 60.40,14.58 61.40,13.81 62.79,13.25 64.59,12.92 66.79,12.81 66.80,-9.59 64.58,-10.39 63.80,-11.39 63.24,-12.79 62.91,-14.60 62.80,-16.80 40.40,-16.80 39.60,-14.58 38.60,-13.80 37.20,-13.24 35.40,-12.91 33.20,-12.80 33.20,9.60 35.42,10.40 36.20,11.40 36.76,12.80 37.09,14.60">
        <request index="0"  response="00000000000000000000" foes="00000000000111000000" cont="0"/>
        <request index="1"  response="00000000000000000000" foes="11111100001111000000" cont="0"/>
        <request index="2"  response="00000000000000000000" foes="11111100001111000000" cont="0"/>
        <request index="3"  response="00000000000000000000" foes="11111100001111000000" cont="0"/>
        <request index="4"  response="00000011100000000000" foes="11110011101111000000" cont="1"/>
        <request index="5"  response="00000011100000000000" foes="00000011100000000000" cont="0"/>
        <request index="6"  response="00000111100000011111" foes="10000111100000011111" cont="0"/>
        <request index="7"  response="00000111100000011111" foes="10000111100000011111" cont="0"/>
        <request index="8"  response="00000111100000011111" foes="10000111100000011111" cont="0"/>
        <request index="9"  response="01110111100000011110" foes="01110111100000011110" cont="0"/>
        <request index="10" response="00000000000000000000" foes="01110000000000000000" cont="0"/>
        <request index="11" response="00000000000000000000" foes="11110000001111110000" cont="0"/>
        <request index="12" response="00000000000000000000" foes="11110000001111110000" cont="0"/>
        <request index="13" response="00000000000000000000" foes="11110000001111110000" cont="0"/>
        <request index="14" response="00000000000000001110" foes="11110000001111001110" cont="1"/>
        <request index="15" response="00000000000000001110" foes="00000000000000001110" cont="0"/>
        <request index="16" response="00000111110000011110" foes="00000111111000011110" cont="0"/>
        <request index="17" response="00000111110000011110" foes="00000111111000011110" cont="0"/>
        <request index="18" response="00000111110000011110" foes="00000111111000011110" cont="0"/>
        <request index="19" response="00000111100111011110" foes="00000111100111011110" cont="0"/>
    </junction>
    <junction id="J7" type="dead_end" x="200.00" y="0.00" incLanes="-E_0 -E_1 -E_2" intLanes="" shape="200.00,0.10 200.01,-9.50 200.00,0.10"/>
    <junction id="J8" type="dead_end" x="50.00" y="150.00" incLanes="-N_0 -N_1 -N_2" intLanes="" shape="50.00,150.00 59.60,150.00 50.00,150.00"/>
    <junction id="J9" type="dead_end" x="50.00" y="-150.00" incLanes="-S_0 -S_1 -S_2" intLanes="" shape="50.00,-150.00 40.40,-150.00 50.00,-150.00"/>

    <junction id=":J6_20_0" type="internal" x="49.53" y="8.93" incLanes=":J6_4_0 S_0 S_1 S_2" intLanes=":J6_6_0 :J6_6_1 :J6_6_2 :J6_9_0 :J6_10_0 :J6_11_0 :J6_11_1 :J6_11_2 :J6_16_0 :J6_16_1 :J6_16_2 :J6_19_0"/>
    <junction id=":J6_21_0" type="internal" x="50.47" y="-8.92" incLanes=":J6_14_0 N_0 N_1 N_2" intLanes=":J6_0_0 :J6_1_0 :J6_1_1 :J6_1_2 :J6_6_0 :J6_6_1 :J6_6_2 :J6_9_0 :J6_16_0 :J6_16_1 :J6_16_2 :J6_19_0"/>

    <connection from="E" to="-N" fromLane="0" toLane="0" keepClear="0" via=":J6_5_0" dir="r" state="m"/>
    <connection from="E" to="-W" fromLane="0" toLane="0" keepClear="0" via=":J6_6_0" dir="s" state="m"/>
    <connection from="E" to="-W" fromLane="1" toLane="1" keepClear="0" via=":J6_6_1" dir="s" state="m"/>
    <connection from="E" to="-W" fromLane="2" toLane="2" keepClear="0" via=":J6_6_2" dir="s" state="m"/>
    <connection from="E" to="-S" fromLane="3" toLane="2" keepClear="0" via=":J6_9_0" dir="l" state="m"/>
    <connection from="N" to="-W" fromLane="0" toLane="0" keepClear="0" via=":J6_0_0" dir="r" state="M"/>
    <connection from="N" to="-S" fromLane="0" toLane="0" keepClear="0" via=":J6_1_0" dir="s" state="M"/>
    <connection from="N" to="-S" fromLane="1" toLane="1" keepClear="0" via=":J6_1_1" dir="s" state="M"/>
    <connection from="N" to="-S" fromLane="2" toLane="2" keepClear="0" via=":J6_1_2" dir="s" state="M"/>
    <connection from="N" to="-E" fromLane="3" toLane="2" keepClear="0" via=":J6_4_0" dir="l" state="m"/>
    <connection from="S" to="-E" fromLane="0" toLane="0" keepClear="0" via=":J6_10_0" dir="r" state="M"/>
    <connection from="S" to="-N" fromLane="0" toLane="0" keepClear="0" via=":J6_11_0" dir="s" state="M"/>
    <connection from="S" to="-N" fromLane="1" toLane="1" keepClear="0" via=":J6_11_1" dir="s" state="M"/>
    <connection from="S" to="-N" fromLane="2" toLane="2" keepClear="0" via=":J6_11_2" dir="s" state="M"/>
    <connection from="S" to="-W" fromLane="3" toLane="2" keepClear="0" via=":J6_14_0" dir="l" state="m"/>
    <connection from="W" to="-S" fromLane="0" toLane="0" keepClear="0" via=":J6_15_0" dir="r" state="m"/>
    <connection from="W" to="-E" fromLane="0" toLane="0" keepClear="0" via=":J6_16_0" dir="s" state="m"/>
    <connection from="W" to="-E" fromLane="1" toLane="1" keepClear="0" via=":J6_16_1" dir="s" state="m"/>
    <connection from="W" to="-E" fromLane="2" toLane="2" keepClear="0" via=":J6_16_2" dir="s" state="m"/>
    <connection from="W" to="-N" fromLane="3" toLane="2" keepClear="0" via=":J6_19_0" dir="l" state="m"/>

    <connection from=":J6_0" to="-W" fromLane="0" toLane="0" dir="r" state="M"/>
    <connection from=":J6_1" to="-S" fromLane="0" toLane="0" dir="s" state="M"/>
    <connection from=":J6_1" to="-S" fromLane="1" toLane="1" dir="s" state="M"/>
    <connection from=":J6_1" to="-S" fromLane="2" toLane="2" dir="s" state="M"/>
    <connection from=":J6_4" to="-E" fromLane="0" toLane="2" via=":J6_20_0" dir="l" state="m"/>
    <connection from=":J6_20" to="-E" fromLane="0" toLane="2" dir="l" state="M"/>
    <connection from=":J6_5" to="-N" fromLane="0" toLane="0" dir="r" state="M"/>
    <connection from=":J6_6" to="-W" fromLane="0" toLane="0" dir="s" state="M"/>
    <connection from=":J6_6" to="-W" fromLane="1" toLane="1" dir="s" state="M"/>
    <connection from=":J6_6" to="-W" fromLane="2" toLane="2" dir="s" state="M"/>
    <connection from=":J6_9" to="-S" fromLane="0" toLane="2" dir="l" state="M"/>
    <connection from=":J6_10" to="-E" fromLane="0" toLane="0" dir="r" state="M"/>
    <connection from=":J6_11" to="-N" fromLane="0" toLane="0" dir="s" state="M"/>
    <connection from=":J6_11" to="-N" fromLane="1" toLane="1" dir="s" state="M"/>
    <connection from=":J6_11" to="-N" fromLane="2" toLane="2" dir="s" state="M"/>
    <connection from=":J6_14" to="-W" fromLane="0" toLane="2" via=":J6_21_0" dir="l" state="m"/>
    <connection from=":J6_21" to="-W" fromLane="0" toLane="2" dir="l" state="M"/>
    <connection from=":J6_15" to="-S" fromLane="0" toLane="0" dir="r" state="M"/>
    <connection from=":J6_16" to="-E" fromLane="0" toLane="0" dir="s" state="M"/>
    <connection from=":J6_16" to="-E" fromLane="1" toLane="1" dir="s" state="M"/>
    <connection from=":J6_16" to="-E" fromLane="2" toLane="2" dir="s" state="M"/>
    <connection from=":J6_19" to="-N" fromLane="0" toLane="2" dir="l" state="M"/>

</net>
